4
Coordinates from ORCA-job ammonia_IRC_F E -56.380978580198
  N          -1.51212117076116      0.55624341429106      0.00969240919445
  H          -2.25409818086351      0.78810968199075     -0.63934354750041
  H          -0.97466040669497      1.40304716664890      0.14781891014444
  H          -1.95771079106649      0.34965655796383      0.89522087324965
