4
Coordinates from ORCA-job ammonia_IRC_F E -56.373079810631
  N      -1.622855      0.704804      0.073535
  H      -2.249849      0.735187     -0.708230
  H      -0.890795      1.387756      0.127159
  H      -1.935091      0.269311      0.920925
4
Coordinates from ORCA-job ammonia_IRC_F E -56.376208463941
  N      -1.585082      0.654175      0.051789
  H      -2.255652      0.752869     -0.691057
  H      -0.913276      1.397290      0.134314
  H      -1.944581      0.292723      0.918343
4
Coordinates from ORCA-job ammonia_IRC_F E -56.379267622874
  N      -1.551554      0.607183      0.031180
  H      -2.255040      0.769596     -0.666778
  H      -0.941026      1.401019      0.140791
  H      -1.950970      0.319259      0.908195
4
Coordinates from ORCA-job ammonia_IRC_F E -56.380754283199
  N      -1.521217      0.565986      0.013770
  H      -2.257266      0.783802     -0.649847
  H      -0.962487      1.407010      0.146667
  H      -1.957620      0.340259      0.902798
4
Coordinates from ORCA-job ammonia_IRC_F E -56.380863789573
  N      -1.519579      0.564112      0.012986
  H      -2.255516      0.784721     -0.646183
  H      -0.966345      1.405140      0.146859
  H      -1.957150      0.343085      0.899726
4
Coordinates from ORCA-job ammonia_IRC_F E -56.380915680323
  N      -1.517627      0.562053      0.012130
  H      -2.254777      0.785645     -0.643848
  H      -0.969046      1.404208      0.147099
  H      -1.957140      0.345150      0.898008
4
Coordinates from ORCA-job ammonia_IRC_F E -56.380947044526
  N      -1.515741      0.559929      0.011236
  H      -2.254403      0.786525     -0.642070
  H      -0.971155      1.403749      0.147363
  H      -1.957292      0.346854      0.896859
4
Coordinates from ORCA-job ammonia_IRC_F E -56.380965238703
  N      -1.514103      0.558215      0.010518
  H      -2.254234      0.787253     -0.640782
  H      -0.972780      1.403429      0.147576
  H      -1.957474      0.348161      0.896076
4
Coordinates from ORCA-job ammonia_IRC_F E -56.380978580198
  N      -1.512121      0.556243      0.009692
  H      -2.254098      0.788110     -0.639344
  H      -0.974660      1.403047      0.147819
  H      -1.957711      0.349657      0.895221
