4
Coordinates from ORCA-job ammonia_IRC_B E -56.380977902684
  N          -1.75775961329438      0.88635958285943      0.15150516868063
  H          -2.06744798106783      0.53721141488645     -0.74719750381469
  H          -0.78700094566878      1.15100585465800      0.03953207684951
  H          -1.77079491057719      0.09836432669414      0.78741161319544
