3
Coordinates from ORCA-job /home/vivek/mm/lab5/6-311/water/monomer/monomer E -76.263771422616
  O      -1.956517      1.819359     -0.393335
  H      -1.906175      1.150774      0.294514
  H      -1.336672      2.503963     -0.104830
3
Coordinates from ORCA-job /home/vivek/mm/lab5/6-311/water/monomer/monomer E -76.263956284689
  O      -1.956283      1.821731     -0.395166
  H      -1.901474      1.159642      0.293328
  H      -1.341606      2.492723     -0.101814
3
Coordinates from ORCA-job /home/vivek/mm/lab5/6-311/water/monomer/monomer E -76.263968493381
  O      -1.957482      1.821581     -0.396801
  H      -1.900354      1.161038      0.293705
  H      -1.341527      2.491478     -0.100555
3
Coordinates from ORCA-job /home/vivek/mm/lab5/6-311/water/monomer/monomer E -76.263971892091
  O      -1.958517      1.821498     -0.398255
  H      -1.899365      1.162244      0.294061
  H      -1.341482      2.490355     -0.099457
3
Coordinates from ORCA-job /home/vivek/mm/lab5/6-311/water/monomer/monomer E -76.263971889904
  O      -1.958515      1.821492     -0.398246
  H      -1.899372      1.162235      0.294058
  H      -1.341477      2.490369     -0.099463
