3
Coordinates from ORCA-job /home/vivek/mm/lab5/6-311/water/monomer/monomer E -76.263971889904
  O          -1.95851467050913      1.82149195041507     -0.39824613509810
  H          -1.89937247556386      1.16223500683338      0.29405750399306
  H          -1.34147665349572      2.49036934406261     -0.09946276153667
