4
Coordinates from ORCA-job oh3plus E -76.501157109703
  O           1.45919597982355      2.28862129589918      0.19380256873718
  H           2.20175391105960      1.81875562818409      0.61172994318268
  H           1.50285623609680      3.25219995984568      0.06657091850933
  H           0.66877787302004      1.79624711607103     -0.08791643042919
