4
Coordinates from ORCA-job oh3plus_IRC_Full E -76.503713986921
  O       1.417833      2.302695      0.283898
  H       2.247284      1.809811      0.450552
  H       1.569620      3.199747     -0.077772
  H       0.760709      1.787869     -0.227572
4
Coordinates from ORCA-job oh3plus_IRC_Full E -76.503701447825
  O       1.419458      2.302236      0.281167
  H       2.247603      1.809464      0.451993
  H       1.569220      3.201102     -0.076988
  H       0.759164      1.787321     -0.227066
4
Coordinates from ORCA-job oh3plus_IRC_Full E -76.503691764992
  O       1.420317      2.301995      0.279729
  H       2.247912      1.809192      0.452831
  H       1.569018      3.201999     -0.076599
  H       0.758198      1.786936     -0.226855
4
Coordinates from ORCA-job oh3plus_IRC_Full E -76.503676351468
  O       1.421032      2.301757      0.278235
  H       2.248720      1.808614      0.453915
  H       1.568851      3.203441     -0.076282
  H       0.756842      1.786311     -0.226762
4
Coordinates from ORCA-job oh3plus_IRC_Full E -76.503608360307
  O       1.424282      2.300513      0.270031
  H       2.249858      1.807569      0.457814
  H       1.567796      3.206629     -0.073965
  H       0.753509      1.785411     -0.224773
4
Coordinates from ORCA-job oh3plus_IRC_Full E -76.503210091192
  O       1.436445      2.296442      0.242260
  H       2.251103      1.805527      0.470136
  H       1.563913      3.214664     -0.065724
  H       0.743984      1.783490     -0.217566
4
Coordinates from ORCA-job oh3plus_IRC_Full E -76.502723035224
  O       1.445630      2.293255      0.223265
  H       2.255342      1.801920      0.480631
  H       1.561371      3.225404     -0.060704
  H       0.733103      1.779543     -0.214085
4
Coordinates from ORCA-job oh3plus_IRC_Full E -76.502307074586
  O       1.448245      2.292367      0.217678
  H       2.260012      1.798685      0.485595
  H       1.560820      3.232900     -0.059825
  H       0.726369      1.776171     -0.214342
4
Coordinates from ORCA-job oh3plus_IRC_Full E -76.501157112557
  O       1.459196      2.288621      0.193803
  H       2.201754      1.818756      0.611730
  H       1.502856      3.252200      0.066571
  H       0.668778      1.796247     -0.087916
4
Coordinates from ORCA-job oh3plus_IRC_Full E -76.502402388881
  O       1.470147      2.284876      0.169927
  H       2.143496      1.838826      0.737865
  H       1.444893      3.271500      0.192966
  H       0.611187      1.816324      0.038510
4
Coordinates from ORCA-job oh3plus_IRC_Full E -76.502810653237
  O       1.472552      2.284073      0.164561
  H       2.137151      1.842596      0.736572
  H       1.443774      3.264624      0.195723
  H       0.616246      1.820232      0.042412
4
Coordinates from ORCA-job oh3plus_IRC_Full E -76.503277593206
  O       1.480706      2.281473      0.145623
  H       2.126948      1.848197      0.738816
  H       1.440552      3.255686      0.203278
  H       0.621518      1.826170      0.051550
4
Coordinates from ORCA-job oh3plus_IRC_Full E -76.503636892028
  O       1.493497      2.276852      0.118904
  H       2.117359      1.853051      0.744906
  H       1.436166      3.250758      0.213067
  H       0.622700      1.830865      0.062390
4
Coordinates from ORCA-job oh3plus_IRC_Full E -76.503679106475
  O       1.495418      2.275990      0.114021
  H       2.115034      1.854323      0.745647
  H       1.435332      3.248879      0.214967
  H       0.623938      1.832334      0.064632
4
Coordinates from ORCA-job oh3plus_IRC_Full E -76.503695422645
  O       1.496237      2.275593      0.111828
  H       2.113640      1.855117      0.745785
  H       1.434941      3.247574      0.215883
  H       0.624904      1.833241      0.065772
4
Coordinates from ORCA-job oh3plus_IRC_Full E -76.503702724215
  O       1.497044      2.275511      0.110754
  H       2.112961      1.855481      0.745863
  H       1.434720      3.247032      0.216332
  H       0.624997      1.833502      0.066319
4
Coordinates from ORCA-job oh3plus_IRC_Full E -76.503714970376
  O       1.498669      2.275158      0.107922
  H       2.111506      1.856256      0.746246
  H       1.434198      3.245926      0.217457
  H       0.625350      1.834187      0.067643
