4
Coordinates from ORCA-job oh3plus_IRC_F E -76.503714970376
  O           1.49866855726935      2.27515757619302      0.10792231117227
  H           2.11150622849790      1.85625552226213      0.74624575236587
  H           1.43419750148444      3.24592590054522      0.21745677927157
  H           0.62535030644954      1.83418672482171      0.06764278611413
