4
Coordinates from ORCA-job oh3plus_IRC_F E -76.502402388881
  O       1.470147      2.284876      0.169927
  H       2.143496      1.838826      0.737865
  H       1.444893      3.271500      0.192966
  H       0.611187      1.816324      0.038510
4
Coordinates from ORCA-job oh3plus_IRC_F E -76.502810653237
  O       1.472552      2.284073      0.164561
  H       2.137151      1.842596      0.736572
  H       1.443774      3.264624      0.195723
  H       0.616246      1.820232      0.042412
4
Coordinates from ORCA-job oh3plus_IRC_F E -76.503277593206
  O       1.480706      2.281473      0.145623
  H       2.126948      1.848197      0.738816
  H       1.440552      3.255686      0.203278
  H       0.621518      1.826170      0.051550
4
Coordinates from ORCA-job oh3plus_IRC_F E -76.503636892028
  O       1.493497      2.276852      0.118904
  H       2.117359      1.853051      0.744906
  H       1.436166      3.250758      0.213067
  H       0.622700      1.830865      0.062390
4
Coordinates from ORCA-job oh3plus_IRC_F E -76.503679106475
  O       1.495418      2.275990      0.114021
  H       2.115034      1.854323      0.745647
  H       1.435332      3.248879      0.214967
  H       0.623938      1.832334      0.064632
4
Coordinates from ORCA-job oh3plus_IRC_F E -76.503695422645
  O       1.496237      2.275593      0.111828
  H       2.113640      1.855117      0.745785
  H       1.434941      3.247574      0.215883
  H       0.624904      1.833241      0.065772
4
Coordinates from ORCA-job oh3plus_IRC_F E -76.503702724215
  O       1.497044      2.275511      0.110754
  H       2.112961      1.855481      0.745863
  H       1.434720      3.247032      0.216332
  H       0.624997      1.833502      0.066319
4
Coordinates from ORCA-job oh3plus_IRC_F E -76.503714970376
  O       1.498669      2.275158      0.107922
  H       2.111506      1.856256      0.746246
  H       1.434198      3.245926      0.217457
  H       0.625350      1.834187      0.067643
