4
Coordinates from ORCA-job /home/vivek/mm/lab5/6-311/hf/dimer/dimer E -200.544358499239
  F          -1.13454722124886      2.43649233388134     -0.11378802879394
  H          -1.03356182042252      2.27783526404974      0.78359640213758
  H          -2.94835421186722      2.54229982004209     -0.40630696259088
  F          -3.84013621090370      2.53757587778994     -0.18977807954653
