4
Coordinates from ORCA-job dimer E -200.397037254606
  F          -0.99869678802676      2.41300458358869     -0.00533322123965
  H          -1.59298251141959      2.30976672060831      0.69887541447671
  H          -2.94040791717524      2.58210638915631     -0.61298417644300
  F          -3.53465199862356      2.47719614006406      0.09100837672927
