4
Coordinates from ORCA-job dimer E -200.397036150394
  F          -5.18134187390145      1.16942928576050      0.11129558222787
  H          -4.34755060515515      1.07465549624316      0.50573173189757
  F          -3.01271280061664      2.47425643735787     -0.09171869643229
  H          -3.83304872032675      2.59967878063845     -0.50528461769315
