4
Coordinates from ORCA-job h2o2-scan E -151.467848769767
  O           1.62468921072502      1.42046394442016     -0.61075733820364
  O           1.35953852630577      0.10414677440832     -0.05549035193210
  H           1.75645473249330      1.96337906880869      0.18489542693628
  H           0.56354553047586      0.25713221236280      0.48132726319946
