4
Coordinates from ORCA-job h2o2-scan E -151.473008562723
  O           1.76962151682044      1.52214315557294      0.25319907683920
  O           0.66093264115441      0.58252617685448      0.19123491010564
  H           1.72543135193539      1.89759092886198     -0.64102384858702
  H           1.14824249008976     -0.25713826128940      0.19656486164218
