4
Coordinates from ORCA-job h2o2-scan E -151.467848933645
  O           1.97407617479699      1.30429169455327     -0.37592436071705
  O           1.01015458621740      0.22031168176077     -0.29033039630087
  H           1.48365536752413      2.05409066348058      0.00154079712949
  H           0.83634187146144      0.16642796020535      0.66468895988844
