4
Coordinates from ORCA-job h2o2-scan E -151.471982611760
  O           1.51797904578200      1.44589479201821     -0.58636369697407
  O           1.40669205671129      0.14114353546553      0.03959088224702
  H           1.87436491311243      1.97462010856101      0.14691706801974
  H           0.50519198439424      0.18346356395522      0.39983074670730
