4
Coordinates from ORCA-job h2o2-scan E -151.470935938004
  O           1.55232270720063      1.43632004158603     -0.59820252551790
  O           1.39460380456553      0.12738051824939      0.00677934389166
  H           1.83462918948208      1.97067013522925      0.16314076110981
  H           0.52267229875171      0.21075130493529      0.42825742051642
