4
Coordinates from ORCA-job h2o2-scan E -151.471906272035
  O           1.93149624764136      1.35149834420449      0.03339533160851
  O           0.75442216224059      0.48567333160788     -0.10118694367358
  H           1.58929906067742      2.12588535981608     -0.43849985539148
  H           1.02901052944062     -0.21793503562847      0.50626646745655
