4
Coordinates from ORCA-job h2o2-scan E -151.472660918436
  O           1.97012807660263      1.31127619516574     -0.07681781202161
  O           0.81436982709897      0.42252185597453     -0.18883733741403
  H           1.54223616496845      2.14617962260987     -0.32206251369120
  H           0.97749393132993     -0.13485567375016      0.58769266312684
