4
Coordinates from ORCA-job h2o2-scan E -151.462415025687
  O           1.73734666649067      1.39887293146677     -0.59787683385448
  O           1.28263740816843      0.08829225116175     -0.14009410678122
  H           1.65252049284750      1.96481739326270      0.18688135256909
  H           0.63172343249336      0.29313942410875      0.55106458806661
