4
Coordinates from ORCA-job h2o2-scan E -151.471838251182
  O           1.91516141197868      1.36841464505993      0.06797641564565
  O           0.73694825207928      0.50414387519439     -0.06798977991618
  H           1.60614560659079      2.11046583780922     -0.47360551227657
  H           1.04597272935124     -0.23790235806355      0.47359387654710
