4
Coordinates from ORCA-job h2o2-scan E -151.465992744788
  O           1.66222132617743      1.41334289618297     -0.61073156075589
  O           1.33668576316189      0.09589627014984     -0.08496502844241
  H           1.71953096837888      1.96178874421511      0.18971723275387
  H           0.58578994228176      0.27409408945205      0.50595435644443
