4
Coordinates from ORCA-job h2o2-scan E -151.465994436535
  O           1.96053100042080      1.31407161720397     -0.41013924208945
  O           1.03834923046387      0.19517189138604     -0.28551244555820
  H           1.48950118850382      2.03852249809443      0.03494637036221
  H           0.81584658061148      0.19735599331553      0.66068031728545
