4
Coordinates from ORCA-job h2o2-scan E -151.464118745359
  O           1.69998787778195      1.40627629129873     -0.60640096843307
  O           1.31083898508620      0.09047935031022     -0.11320537193182
  H           1.68478538809319      1.96223465379391      0.19034832330937
  H           0.60861574903862      0.28613170459711      0.52923301705552
