4
Coordinates from ORCA-job h2o2-scan E -151.459853085514
  O           1.84078638892995      1.37167667542665     -0.54961772584511
  O           1.19067164748089      0.10346493511674     -0.21136981294900
  H           1.57122166328214      1.98324644708677      0.15423945500772
  H           0.70154830030699      0.28673394236981      0.60672308378639
