4
Coordinates from ORCA-job h2o2-scan E -151.471982476569
  O           1.99349527589260      1.28791147109779     -0.26679249458622
  O           0.93116272511776      0.29909764813624     -0.27996666877305
  H           1.48749267718744      2.10312938937685     -0.11305020117447
  H           0.89207732180218      0.05498349138911      0.65978436453375
