4
Coordinates from ORCA-job h2o2-scan E -151.471908514538
  O           1.89744938855733      1.38686756077585      0.10106179909369
  O           0.72085882770125      0.52107519453615     -0.03330459144507
  H           1.62321960101864      2.09065534802478     -0.50629820357110
  H           1.06270018272278     -0.25347610333679      0.43851599592248
