4
Coordinates from ORCA-job h2o2-scan E -151.472660216520
  O           1.83773097668151      1.45006728960528      0.18879916446557
  O           0.68200175892387      0.56125720208193      0.07683296501634
  H           1.67455216414655      2.00741765282246     -0.58774044275679
  H           1.10994310024805     -0.27362014450967      0.32208331327488
