4
Coordinates from ORCA-job h2o2-scan E -151.462414329643
  O           1.92241843897787      1.33708468812956     -0.47328170191362
  O           1.09752088603611      0.15013502477983     -0.26459241829065
  H           1.51251999736053      2.01192059010588      0.09241893500487
  H           0.77176867762546      0.24598169698470      0.64543018519941
