4
Coordinates from ORCA-job h2o2-scan E -151.471987757540
  O           1.72070650900692      1.57366281113659      0.27969570325247
  O           0.65888294927020      0.58443631878714      0.26699561291801
  H           1.75949559639275      1.81759697853763     -0.66004403557476
  H           1.16514294533012     -0.23057410846136      0.11332771940428
