4
Coordinates from ORCA-job h2o2-scan E -151.472665303813
  O           1.74552804495022      1.54765213853213      0.26829284943515
  O           0.65855006597779      0.58478309688076      0.22928065099552
  H           1.74235077084487      1.85772603749731     -0.65218835966129
  H           1.15779911822712     -0.24503927291021      0.15458985923063
