4
Coordinates from ORCA-job h2o2-scan E -151.461042774483
  O           1.89818718980367      1.34911665008050     -0.50146680256975
  O           1.12819021819600      0.13135428711990     -0.24932508882536
  H           1.52925132280827      2.00110157133349      0.11623451619341
  H           0.74859926919202      0.26354949146608      0.63453237520170
