4
Coordinates from ORCA-job h2o2-scan E -151.472099695745
  O           1.87853485356457      1.40671325461885      0.13239472269323
  O           0.70626647607018      0.53632834867047      0.00257778655854
  H           1.64038194862674      2.06668370368782     -0.53634808406412
  H           1.07904472173851     -0.26460330697715      0.40135057481235
