4
Coordinates from ORCA-job h2o2-scan E -151.472363745598
  O           1.95900020033509      1.32278069159595     -0.03931466958198
  O           0.79336504282497      0.44472832739371     -0.16183368273293
  H           1.55722573652560      2.14378149109039     -0.36240408103978
  H           0.99463702031433     -0.16616851008005      0.56352743335470
