4
Coordinates from ORCA-job h2o2-scan E -151.460156504942
  O           1.87087828323337      1.36077449197967     -0.52699290454549
  O           1.15931561557537      0.11569497047917     -0.23145677364136
  H           1.54893153573712      1.99162402054412      0.13682066402947
  H           0.72510256545411      0.27702851699701      0.62160401415738
