4
Coordinates from ORCA-job h2o2-scan E -151.472664632696
  O           1.99370894727226      1.28760339819763     -0.22912770579944
  O           0.90644039500971      0.32508361772149     -0.26846786008106
  H           1.49471569377344      2.11757345153006     -0.15438991390027
  H           0.90936296394456      0.01486153255080      0.65196047978077
