18
Coordinates from ORCA-job cyclohexane_IRC_B E -235.070822112699
  C          -3.59237635794624      1.66812739758770     -0.29851603488379
  C          -2.72090508876796      0.54178403844620     -0.87089343070668
  C          -1.47442852283684      2.94409169289440     -0.86452552184086
  C          -1.36881278980210      0.49266599102393     -0.16039635140062
  H          -0.79684901718147     -0.37776704725385     -0.48949567342948
  C          -2.77743940713451      2.96368720469251     -0.06638753508836
  H          -4.03262661831844      1.33328360510644      0.64433193655215
  C          -0.56916653522681      1.79760604524623     -0.39364428293687
  H          -0.94925367344590      3.89704840395794     -0.77016354897556
  H          -0.06947233000512      2.09633429402907      0.53154490002263
  H          -2.56222534910342      0.70226811886584     -1.93974414718308
  H          -4.43066812754170      1.85415160795698     -0.97377280557052
  H          -3.24018852587710     -0.41473734542058     -0.77996171666259
  H          -1.55066708216392      0.34753293443830      0.90776661306568
  H           0.22425675292148      1.63951579779238     -1.12767061459300
  H          -1.70218092392045      2.82512023316352     -1.92630795647358
  H          -3.36839631449062      3.84571067431433     -0.32302924812446
  H          -2.52622005734146      3.06677639667649      0.99257373811523
