18
Coordinates from ORCA-job cyclohexane_IRC_F E -235.065322301913
  C      -3.502652      1.649670     -0.064484
  C      -2.777103      0.570785     -0.875206
  C      -1.418422      2.915125     -0.873755
  C      -1.320602      0.411867     -0.401710
  H      -0.753839     -0.184301     -1.166176
  C      -2.840961      3.053816     -0.300701
  H      -3.440537      1.368371      1.022836
  C      -0.643714      1.806563     -0.153719
  H      -0.894067      3.868416     -0.777419
  H      -0.635988      2.044985      0.945449
  H      -2.801999      0.830748     -1.941337
  H      -4.595112      1.666241     -0.321088
  H      -3.295231     -0.386267     -0.782364
  H      -1.304549     -0.194728      0.544278
  H       0.430254      1.801469     -0.479726
  H      -1.462921      2.696326     -1.948413
  H      -3.455249      3.679352     -1.002103
  H      -2.793726      3.621849      0.667585
18
Coordinates from ORCA-job cyclohexane_IRC_F E -235.069403618684
  C      -3.507510      1.654930     -0.058041
  C      -2.776526      0.570993     -0.872209
  C      -1.418853      2.914749     -0.870663
  C      -1.312096      0.408666     -0.398573
  H      -0.761284     -0.172480     -1.152586
  C      -2.849123      3.056729     -0.296918
  H      -3.441606      1.374882      1.004402
  C      -0.638379      1.801011     -0.147799
  H      -0.893757      3.868544     -0.777583
  H      -0.636119      2.039242      0.926792
  H      -2.801783      0.830536     -1.937268
  H      -4.576084      1.667720     -0.316187
  H      -3.295565     -0.386391     -0.782471
  H      -1.304068     -0.183967      0.527800
  H       0.411559      1.799777     -0.473711
  H      -1.462876      2.696425     -1.944349
  H      -3.446990      3.667055     -0.989555
  H      -2.795357      3.611866      0.650866
18
Coordinates from ORCA-job cyclohexane_IRC_F E -235.070697565578
  C      -3.494646      1.658023     -0.065065
  C      -2.774867      0.572829     -0.866775
  C      -1.420113      2.912616     -0.865162
  C      -1.318827      0.422516     -0.399712
  H      -0.764161     -0.157530     -1.139943
  C      -2.842497      3.042929     -0.298982
  H      -3.441872      1.385167      0.990762
  C      -0.651606      1.798111     -0.154055
  H      -0.894551      3.865961     -0.775374
  H      -0.636741      2.029548      0.912829
  H      -2.800674      0.830629     -1.927452
  H      -4.558065      1.672978     -0.311743
  H      -3.294683     -0.383949     -0.780147
  H      -1.301107     -0.173790      0.515210
  H       0.393894      1.794326     -0.468399
  H      -1.463356      2.696034     -1.934473
  H      -3.443272      3.651588     -0.977735
  H      -2.799275      3.602302      0.638163
18
Coordinates from ORCA-job cyclohexane_IRC_F E -235.070810032702
  C      -3.493360      1.657061     -0.064500
  C      -2.775452      0.572238     -0.867999
  C      -1.419613      2.913264     -0.866384
  C      -1.320021      0.422684     -0.400383
  H      -0.762678     -0.153551     -1.141457
  C      -2.841344      3.042784     -0.299726
  H      -3.439283      1.387291      0.992438
  C      -0.652843      1.799057     -0.153380
  H      -0.893974      3.866400     -0.773161
  H      -0.639204      2.027354      0.914583
  H      -2.800657      0.831184     -1.928104
  H      -4.556304      1.676192     -0.313427
  H      -3.295115     -0.384476     -0.777912
  H      -1.300663     -0.171163      0.516513
  H       0.392036      1.791168     -0.470100
  H      -1.463426      2.695512     -1.935131
  H      -3.444828      3.647647     -0.979310
  H      -2.799689      3.599640      0.639388
18
Coordinates from ORCA-job cyclohexane_IRC_F E -235.070853549421
  C      -3.492423      1.657091     -0.064775
  C      -2.775709      0.571816     -0.867797
  C      -1.419341      2.913679     -0.866180
  C      -1.320532      0.423409     -0.400606
  H      -0.761924     -0.151975     -1.142194
  C      -2.840850      3.042073     -0.300003
  H      -3.438176      1.388078      0.993152
  C      -0.653794      1.799035     -0.153595
  H      -0.893787      3.866452     -0.772386
  H      -0.640255      2.026536      0.915332
  H      -2.800827      0.831307     -1.928448
  H      -4.555685      1.677528     -0.313937
  H      -3.295251     -0.384555     -0.777127
  H      -1.300485     -0.170207      0.516918
  H       0.391390      1.789849     -0.470626
  H      -1.463285      2.695406     -1.935481
  H      -3.445619      3.646091     -0.980064
  H      -2.799865      3.598675      0.639764
18
Coordinates from ORCA-job cyclohexane_IRC_F E -235.070906223273
  C      -3.491227      1.656999     -0.064688
  C      -2.776070      0.571386     -0.867875
  C      -1.418983      2.914117     -0.866253
  C      -1.321121      0.424118     -0.401070
  H      -0.760793     -0.148970     -1.143294
  C      -2.840292      3.041385     -0.300523
  H      -3.436185      1.389541      0.993892
  C      -0.654974      1.799119     -0.153433
  H      -0.893337      3.866712     -0.770996
  H      -0.642178      2.025037      0.916138
  H      -2.801297      0.831250     -1.928668
  H      -4.554307      1.679897     -0.314615
  H      -3.295607     -0.384866     -0.775719
  H      -1.300133     -0.168427      0.517252
  H       0.389976      1.787501     -0.471317
  H      -1.462844      2.695477     -1.935716
  H      -3.446807      3.643113     -0.981220
  H      -2.800239      3.596897      0.640051
