18
Coordinates from ORCA-job cyclohexane E -235.068300406998
  C      -3.532497      1.667349     -0.155022
  C      -2.770872      0.543186     -0.845226
  C      -1.422876      2.941608     -0.841780
  C      -1.335170      0.443172     -0.338395
  H      -0.770041     -0.232092     -0.991589
  C      -2.822507      3.020242     -0.239812
  H      -3.676713      1.406277      0.901022
  C      -0.619410      1.792377     -0.246269
  H      -0.897158      3.889141     -0.678450
  H      -0.407301      2.012226      0.807054
  H      -2.766456      0.715361     -1.928305
  H      -4.536877      1.751142     -0.586141
  H      -3.285908     -0.410515     -0.685305
  H      -1.332053     -0.025340      0.653815
  H       0.354838      1.726779     -0.744542
  H      -1.497163      2.811896     -1.928470
  H      -3.427783      3.719560     -0.828481
  H      -2.761072      3.449374      0.767724
18
Coordinates from ORCA-job cyclohexane E -235.068112053951
  C      -3.551174      1.660349     -0.175818
  C      -2.771130      0.540055     -0.843957
  C      -1.422246      2.942931     -0.840835
  C      -1.338270      0.455512     -0.314560
  H      -0.780401     -0.254687     -0.935013
  C      -2.818066      3.006416     -0.218152
  H      -3.742849      1.381476      0.867359
  C      -0.601610      1.799299     -0.266971
  H      -0.909342      3.896785     -0.677817
  H      -0.342233      2.039312      0.770664
  H      -2.760036      0.708413     -1.927053
  H      -4.535208      1.766950     -0.645346
  H      -3.278822     -0.417847     -0.689897
  H      -1.348199      0.023775      0.693370
  H       0.348653      1.719848     -0.806314
  H      -1.503696      2.816733     -1.926852
  H      -3.412723      3.739707     -0.774174
  H      -2.739667      3.396716      0.803193
18
Coordinates from ORCA-job cyclohexane E -235.068628825507
  C      -3.563043      1.657481     -0.193599
  C      -2.760351      0.542496     -0.851710
  C      -1.433182      2.940460     -0.848786
  C      -1.341490      0.460090     -0.286863
  H      -0.783392     -0.284711     -0.862803
  C      -2.813321      3.000813     -0.191139
  H      -3.794164      1.361586      0.835223
  C      -0.591196      1.802328     -0.285278
  H      -0.926487      3.898953     -0.703510
  H      -0.294067      2.060984      0.736174
  H      -2.723804      0.716332     -1.932544
  H      -4.527456      1.778317     -0.695755
  H      -3.264428     -0.418910     -0.717761
  H      -1.384188      0.072515      0.736619
  H       0.337600      1.712409     -0.856395
  H      -1.540388      2.808122     -1.930716
  H      -3.404874      3.767193     -0.701273
  H      -2.698790      3.345284      0.841942
18
Coordinates from ORCA-job cyclohexane E -235.069089403714
  C      -3.554331      1.658252     -0.176110
  C      -2.760872      0.547520     -0.857035
  C      -1.433176      2.936287     -0.854547
  C      -1.339959      0.449552     -0.299657
  H      -0.778937     -0.276564     -0.894233
  C      -2.815264      3.011726     -0.202726
  H      -3.749092      1.364184      0.859641
  C      -0.599056      1.801261     -0.268278
  H      -0.919395      3.891742     -0.722329
  H      -0.338197      2.057159      0.762812
  H      -2.726191      0.736459     -1.934474
  H      -4.534261      1.762904     -0.648604
  H      -3.270844     -0.411146     -0.734080
  H      -1.381685      0.037968      0.713164
  H       0.348546      1.723496     -0.807263
  H      -1.538513      2.789090     -1.933803
  H      -3.411785      3.760042     -0.731312
  H      -2.704006      3.381811      0.820662
18
Coordinates from ORCA-job cyclohexane E -235.069248925877
  C      -3.564258      1.656596     -0.197160
  C      -2.750471      0.548796     -0.863082
  C      -1.443845      2.935290     -0.860029
  C      -1.343616      0.456522     -0.272302
  H      -0.780359     -0.302239     -0.821340
  C      -2.810210      3.003985     -0.175860
  H      -3.801148      1.350006      0.825400
  C      -0.590663      1.803610     -0.289386
  H      -0.933419      3.893750     -0.740791
  H      -0.289114      2.072939      0.726401
  H      -2.689766      0.738165     -1.938862
  H      -4.523785      1.775262     -0.705632
  H      -3.257853     -0.412413     -0.753346
  H      -1.414618      0.091658      0.756224
  H       0.333798      1.713701     -0.864394
  H      -1.574959      2.787019     -1.935784
  H      -3.405579      3.783297     -0.657639
  H      -2.667154      3.325799      0.859411
18
Coordinates from ORCA-job cyclohexane E -235.069458689506
  C      -3.555718      1.656132     -0.181373
  C      -2.749391      0.556529     -0.872614
  C      -1.445767      2.928712     -0.869703
  C      -1.343636      0.447248     -0.280810
  H      -0.774804     -0.299295     -0.839155
  C      -2.810306      3.013507     -0.183240
  H      -3.755999      1.345592      0.847220
  C      -0.598416      1.804040     -0.273908
  H      -0.926564      3.884575     -0.771168
  H      -0.333328      2.076171      0.750913
  H      -2.684787      0.766473     -1.943379
  H      -4.530726      1.758922     -0.661945
  H      -3.264388     -0.402326     -0.780656
  H      -1.423837      0.066341      0.740453
  H       0.344463      1.725140     -0.818889
  H      -1.580512      2.760066     -1.941085
  H      -3.412747      3.780973     -0.673592
  H      -2.660556      3.352942      0.844760
18
Coordinates from ORCA-job cyclohexane E -235.069483869520
  C      -3.560856      1.655040     -0.194599
  C      -2.744407      0.555728     -0.875513
  C      -1.450954      2.929790     -0.871890
  C      -1.346112      0.452030     -0.265862
  H      -0.775323     -0.312436     -0.797121
  C      -2.807070      3.008353     -0.168580
  H      -3.785126      1.337948      0.826946
  C      -0.594095      1.805797     -0.286994
  H      -0.932512      3.886623     -0.778273
  H      -0.305579      2.084593      0.729579
  H      -2.666035      0.763422     -1.945588
  H      -4.524364      1.765616     -0.696178
  H      -3.258425     -0.404099     -0.787629
  H      -1.442404      0.098757      0.763942
  H       0.335352      1.719293     -0.853451
  H      -1.599083      2.763087     -1.941616
  H      -3.409525      3.792727     -0.631142
  H      -2.640502      3.319472      0.865799
18
Coordinates from ORCA-job cyclohexane E -235.069484260298
  C      -3.555183      1.655395     -0.183447
  C      -2.748509      0.556253     -0.875716
  C      -1.446961      2.929483     -0.872258
  C      -1.344806      0.446904     -0.278362
  H      -0.772857     -0.303533     -0.827892
  C      -2.808926      3.013857     -0.180617
  H      -3.754677      1.341461      0.844246
  C      -0.599005      1.805244     -0.275894
  H      -0.924805      3.884211     -0.777540
  H      -0.334651      2.080135      0.748367
  H      -2.679589      0.767307     -1.945629
  H      -4.529921      1.756759     -0.664802
  H      -3.265500     -0.401789     -0.785726
  H      -1.433693      0.072810      0.744677
  H       0.343332      1.725850     -0.821657
  H      -1.585656      2.759732     -1.942665
  H      -3.414132      3.784899     -0.661609
  H      -2.651479      3.346765      0.848354
18
Coordinates from ORCA-job cyclohexane E -235.069489390228
  C      -3.555723      1.655311     -0.186241
  C      -2.747877      0.555418     -0.876295
  C      -1.447675      2.930449     -0.872499
  C      -1.345245      0.447615     -0.276057
  H      -0.772027     -0.305858     -0.819993
  C      -2.808359      3.013111     -0.178361
  H      -3.759069      1.340070      0.840307
  C      -0.598567      1.805587     -0.278651
  H      -0.924665      3.884640     -0.777284
  H      -0.330264      2.081536      0.744291
  H      -2.677082      0.764572     -1.946465
  H      -4.528480      1.757717     -0.671346
  H      -3.265315     -0.402236     -0.785160
  H      -1.437613      0.078918      0.748676
  H       0.341298      1.724632     -0.828382
  H      -1.588062      2.762638     -1.943033
  H      -3.414491      3.786965     -0.653578
  H      -2.647802      3.340658      0.851901
18
Coordinates from ORCA-job cyclohexane E -235.069488707595
  C      -3.552095      1.655617     -0.174880
  C      -2.751240      0.557722     -0.875043
  C      -1.444140      2.927942     -0.872141
  C      -1.343713      0.444170     -0.286976
  H      -0.773442     -0.296329     -0.851628
  C      -2.810455      3.016815     -0.188970
  H      -3.735204      1.345095      0.856914
  C      -0.601630      1.804563     -0.267339
  H      -0.922332      3.882880     -0.777861
  H      -0.353652      2.076145      0.761935
  H      -2.688981      0.773027     -1.944509
  H      -4.534349      1.751809     -0.641782
  H      -3.268160     -0.400442     -0.785954
  H      -1.424830      0.053973      0.730626
  H       0.349589      1.730136     -0.798211
  H      -1.576418      2.753973     -1.942648
  H      -3.415130      3.778524     -0.685370
  H      -2.660836      3.366122      0.835665
18
Coordinates from ORCA-job cyclohexane E -235.069490381263
  C      -3.553657      1.655545     -0.181978
  C      -2.749222      0.555986     -0.876379
  C      -1.446349      2.929934     -0.872671
  C      -1.344718      0.445984     -0.280609
  H      -0.771368     -0.302279     -0.831537
  C      -2.809113      3.014882     -0.182793
  H      -3.747768      1.341572      0.846767
  C      -0.600341      1.805227     -0.274396
  H      -0.922514      3.883639     -0.777214
  H      -0.341040      2.079698      0.751292
  H      -2.681959      0.766726     -1.946484
  H      -4.530530      1.754885     -0.659352
  H      -3.267345     -0.401245     -0.784832
  H      -1.434125      0.069446      0.741530
  H       0.344232      1.726721     -0.816323
  H      -1.583212      2.760656     -1.943462
  H      -3.415955      3.783782     -0.665112
  H      -2.652033      3.350585      0.845382
18
Coordinates from ORCA-job cyclohexane E -235.069491886434
  C      -3.553094      1.655633     -0.181506
  C      -2.749377      0.555912     -0.876620
  C      -1.446226      2.930065     -0.872795
  C      -1.344700      0.445659     -0.281265
  H      -0.770788     -0.301812     -0.832643
  C      -2.809174      3.015245     -0.183455
  H      -3.745562      1.341509      0.847509
  C      -0.600829      1.805179     -0.273924
  H      -0.921698      3.883355     -0.776959
  H      -0.342968      2.079609      0.752143
  H      -2.682694      0.766463     -1.946799
  H      -4.530607      1.754365     -0.657675
  H      -3.268023     -0.400971     -0.784462
  H      -1.434281      0.068338      0.740575
  H       0.344367      1.726916     -0.814771
  H      -1.582438      2.761059     -1.943727
  H      -3.416638      3.783338     -0.666256
  H      -2.652290      3.351881      0.844458
