18
Coordinates from ORCA-job cyclohexane E -235.069491886434
  C          -3.55309420254562      1.65563275761480     -0.18150557846082
  C          -2.74937694073616      0.55591191631375     -0.87662014948300
  C          -1.44622607785431      2.93006468942827     -0.87279458985209
  C          -1.34469961124850      0.44565933435399     -0.28126526765690
  H          -0.77078758126384     -0.30181152343431     -0.83264275345356
  C          -2.80917367485028      3.01524457762655     -0.18345524843387
  H          -3.74556189158690      1.34150861770310      0.84750939412397
  C          -0.60082904997023      1.80517911261313     -0.27392359670487
  H          -0.92169776674978      3.88335519701401     -0.77695915611240
  H          -0.34296811471298      2.07960893833196      0.75214254691931
  H          -2.68269412551477      0.76646312479440     -1.94679909905677
  H          -4.53060749714193      1.75436452613723     -0.65767489683329
  H          -3.26802291760652     -0.40097123305261     -0.78446156132032
  H          -1.43428076848531      0.06833816183589      0.74057495907843
  H           0.34436675617410      1.72691632157745     -0.81477127937488
  H          -1.58243762575364      2.76105937788751     -1.94372718213175
  H          -3.41663793490859      3.78333819313320     -0.66625635770492
  H          -2.65228997524474      3.35188091012165      0.84445781645775
