18
Coordinates from ORCA-job cyclohexane_IRC_B E -235.065250862330
  C      -3.603537      1.661596     -0.298527
  C      -2.721651      0.541039     -0.878035
  C      -1.474030      2.945005     -0.871834
  C      -1.368797      0.479451     -0.160820
  H      -0.787737     -0.419322     -0.499110
  C      -2.777386      2.976673     -0.066209
  H      -4.050587      1.314646      0.672183
  C      -0.557944      1.803795     -0.394128
  H      -0.949329      3.898295     -0.776500
  H      -0.049949      2.114233      0.558836
  H      -2.563389      0.702178     -1.952262
  H      -4.466103      1.842488     -0.994262
  H      -3.240815     -0.415676     -0.786559
  H      -1.564012      0.331405      0.936871
  H       0.258479      1.652364     -1.149816
  H      -1.701954      2.825793     -1.939042
  H      -3.378027      3.887325     -0.330410
  H      -2.510854      3.081913      1.021331
18
Coordinates from ORCA-job cyclohexane_IRC_B E -235.069321607256
  C      -3.610373      1.667182     -0.294683
  C      -2.721431      0.541394     -0.875133
  C      -1.474173      2.944515     -0.868848
  C      -1.361381      0.477773     -0.154966
  H      -0.796239     -0.402643     -0.492738
  C      -2.784384      2.978149     -0.059912
  H      -4.043085      1.321341      0.655390
  C      -0.550927      1.798357     -0.390982
  H      -0.949149      3.898454     -0.776657
  H      -0.058488      2.108084      0.542318
  H      -2.563397      0.702057     -1.948162
  H      -4.451164      1.841977     -0.981823
  H      -3.240940     -0.415874     -0.786669
  H      -1.559242      0.334792      0.918256
  H       0.244388      1.652258     -1.136478
  H      -1.701638      2.825742     -1.934895
  H      -3.369153      3.870436     -0.325267
  H      -2.516841      3.079205      1.002959
18
Coordinates from ORCA-job cyclohexane_IRC_B E -235.070613372870
  C      -3.595023      1.669134     -0.296900
  C      -2.720322      0.543565     -0.869719
  C      -1.474978      2.942225     -0.863418
  C      -1.366164      0.490485     -0.161068
  H      -0.800795     -0.384773     -0.486906
  C      -2.780081      2.965829     -0.066792
  H      -4.036957      1.329722      0.642517
  C      -0.566408      1.796555     -0.392295
  H      -0.950112      3.896022     -0.774464
  H      -0.065361      2.100065      0.529580
  H      -2.563143      0.702556     -1.938403
  H      -4.435979      1.846839     -0.970178
  H      -3.239719     -0.413577     -0.784348
  H      -1.551448      0.340593      0.904371
  H       0.229913      1.646783     -1.124118
  H      -1.701201      2.824826     -1.925078
  H      -3.364271      3.852489     -0.320461
  H      -2.525571      3.073862      0.989388
18
Coordinates from ORCA-job cyclohexane_IRC_B E -235.070725558586
  C      -3.594223      1.668242     -0.297661
  C      -2.720560      0.542786     -0.870979
  C      -1.474798      2.943066     -0.864644
  C      -1.367619      0.490972     -0.160381
  H      -0.799002     -0.381499     -0.488461
  C      -2.778606      2.965344     -0.066229
  H      -4.034819      1.331431      0.643707
  C      -0.567262      1.797458     -0.392946
  H      -0.949640      3.896557     -0.772289
  H      -0.067380      2.098265      0.530844
  H      -2.562671      0.702833     -1.939097
  H      -4.433476      1.850161     -0.971805
  H      -3.239997     -0.414174     -0.782132
  H      -1.550960      0.343805      0.906158
  H       0.227254      1.643485     -1.125716
  H      -1.701711      2.824556     -1.925740
  H      -3.366173      3.849337     -0.322010
  H      -2.525976      3.070573      0.991092
18
Coordinates from ORCA-job cyclohexane_IRC_B E -235.070769170897
  C      -3.593321      1.668213     -0.297966
  C      -2.720754      0.542332     -0.870789
  C      -1.474583      2.943523     -0.864446
  C      -1.368107      0.491760     -0.160580
  H      -0.798178     -0.380232     -0.488925
  C      -2.778141      2.964577     -0.066487
  H      -4.034040      1.332067      0.644073
  C      -0.568184      1.797497     -0.393177
  H      -0.949530      3.896667     -0.771527
  H      -0.068116      2.097595      0.531237
  H      -2.562471      0.702741     -1.939470
  H      -4.432573      1.851623     -0.972579
  H      -3.240037     -0.414311     -0.781354
  H      -1.550856      0.345120      0.906926
  H       0.226279      1.642034     -1.126492
  H      -1.701929      2.824654     -1.926086
  H      -3.367029      3.848113     -0.322462
  H      -2.526050      3.069226      0.991813
18
Coordinates from ORCA-job cyclohexane_IRC_B E -235.070822112699
  C      -3.592376      1.668127     -0.298516
  C      -2.720905      0.541784     -0.870893
  C      -1.474429      2.944092     -0.864526
  C      -1.368813      0.492666     -0.160396
  H      -0.796849     -0.377767     -0.489496
  C      -2.777439      2.963687     -0.066388
  H      -4.032627      1.333284      0.644332
  C      -0.569167      1.797606     -0.393644
  H      -0.949254      3.897048     -0.770164
  H      -0.069472      2.096334      0.531545
  H      -2.562225      0.702268     -1.939744
  H      -4.430668      1.854152     -0.973773
  H      -3.240189     -0.414737     -0.779962
  H      -1.550667      0.347533      0.907767
  H       0.224257      1.639516     -1.127671
  H      -1.702181      2.825120     -1.926308
  H      -3.368396      3.845711     -0.323029
  H      -2.526220      3.066776      0.992574
