8
Coordinates from ORCA-job dimer E -112.768635421283
  N          -3.35543999833262     -0.50178950258387     -0.04806214463123
  H          -3.19124354653780     -0.65369206805267      0.93978593232345
  H          -2.56342372563317     -0.90053772944798     -0.53749850571398
  H          -4.16116502250128     -1.06342439688287     -0.29525934659124
  N          -3.95906099821850      2.73117409856905      0.14349768092780
  H          -4.61470007106217      2.98158896100260     -0.58709313642879
  H          -3.77703229999408      1.73627947999867      0.03463226323115
  H          -3.09506933772036      3.20478815739706     -0.09229074311716
