8
Coordinates from ORCA-job ethane E -79.540869330689
  C          -4.00843989690427      1.78471247725366      0.00000184414662
  C          -2.70142742849487      1.00048306455277     -0.00001996985618
  H          -4.31215037342294      2.04386661966810      1.01355178885369
  H          -3.91145518077923      2.71169079594484     -0.56390587369587
  H          -4.81466734720512      1.20634936665122     -0.44964608696460
  H          -1.89520603603681      1.57883621050418      0.44965154590709
  H          -2.79841874539730      0.07349035987835      0.56386285877479
  H          -2.39770399175946      0.74135210554689     -1.01357210716554
