7
Coordinates from ORCA-job ethyl-radical E -78.873357944833
  C          -4.03761085031580      1.76531811088879     -0.01526982943657
  C          -2.85103128241766      0.86798504034207     -0.09461776348754
  H          -4.27379181796496      2.02129660451639      1.01711889355730
  H          -3.87245491741993      2.69182783311061     -0.56430086740838
  H          -4.93227525868515      1.29725361191101     -0.44073468312278
  H          -2.69264690636630      0.10236877054425      0.64857529123452
  H          -2.27388296683019      0.80227902868688     -1.00356004133655
