2
Coordinates from ORCA-job h2 E  -1.149792496058
  H       3.561208      1.165891     -0.793645
  H       3.186069      1.277857     -1.299939
2
Coordinates from ORCA-job h2 E  -1.156514110523
  H       3.600901      1.154044     -0.740075
  H       3.146376      1.289704     -1.353509
2
Coordinates from ORCA-job h2 E  -1.157563062151
  H       3.592166      1.156651     -0.751863
  H       3.155111      1.287097     -1.341721
2
Coordinates from ORCA-job h2 E  -1.157659124783
  H       3.588223      1.157828     -0.757185
  H       3.159054      1.285920     -1.336399
2
Coordinates from ORCA-job h2 E  -1.157661130531
  H       3.588729      1.157677     -0.756502
  H       3.158548      1.286071     -1.337082
2
Coordinates from ORCA-job h2 E  -1.157661132840
  H       3.588711      1.157682     -0.756527
  H       3.158566      1.286066     -1.337057
