4
Coordinates from ORCA-job monomer E -56.380781314131
  N      -3.354995     -0.348029     -0.094160
  H      -3.194559     -0.449027      0.910538
  H      -2.586892     -0.851282     -0.540239
  H      -4.189714     -0.904349     -0.286619
4
Coordinates from ORCA-job monomer E -56.380947740088
  N      -3.354880     -0.352574     -0.092056
  H      -3.195270     -0.449270      0.903794
  H      -2.591809     -0.849089     -0.536886
  H      -4.184201     -0.901754     -0.285331
4
Coordinates from ORCA-job monomer E -56.380972143993
  N      -3.354707     -0.356130     -0.090786
  H      -3.194856     -0.447413      0.905275
  H      -2.590671     -0.848176     -0.538318
  H      -4.185926     -0.900969     -0.286651
4
Coordinates from ORCA-job monomer E -56.380984472523
  N      -3.354411     -0.360906     -0.089133
  H      -3.194410     -0.444932      0.907296
  H      -2.589066     -0.846947     -0.540318
  H      -4.188273     -0.899902     -0.288325
4
Coordinates from ORCA-job monomer E -56.380984456938
  N      -3.354372     -0.361067     -0.089093
  H      -3.194446     -0.444862      0.907348
  H      -2.589001     -0.846902     -0.540403
  H      -4.188340     -0.899856     -0.288331
