8
Coordinates from ORCA-job /home/vivek/mm/lab5/6-311/nh3/dimer/dimer E -112.822712320640
  N      -3.354995     -0.348029     -0.094160
  H      -3.194559     -0.449027      0.910538
  H      -2.586892     -0.851282     -0.540239
  H      -4.189714     -0.904349     -0.286619
  N      -3.962086      2.615914      0.166617
  H      -4.577576      2.825544     -0.617455
  H      -3.784264      1.601785      0.083632
  H      -3.067049      3.043831     -0.064602
8
Coordinates from ORCA-job /home/vivek/mm/lab5/6-311/nh3/dimer/dimer E -112.823618765173
  N      -3.348265     -0.386406     -0.092174
  H      -3.190269     -0.480878      0.907894
  H      -2.583517     -0.886997     -0.533697
  H      -4.180319     -0.934773     -0.287453
  N      -3.965040      2.643259      0.163460
  H      -4.581340      2.864082     -0.612313
  H      -3.790722      1.638148      0.081075
  H      -3.077662      3.077952     -0.069081
8
Coordinates from ORCA-job /home/vivek/mm/lab5/6-311/nh3/dimer/dimer E -112.824131810067
  N      -3.339144     -0.438828     -0.088626
  H      -3.184869     -0.524596      0.909938
  H      -2.572826     -0.935904     -0.529119
  H      -4.173125     -0.978981     -0.289403
  N      -3.969234      2.682727      0.159281
  H      -4.590665      2.919477     -0.606667
  H      -3.799011      1.682594      0.076964
  H      -3.088261      3.127898     -0.074657
8
Coordinates from ORCA-job /home/vivek/mm/lab5/6-311/nh3/dimer/dimer E -112.824255967391
  N      -3.333569     -0.470169     -0.086181
  H      -3.182389     -0.551978      0.913502
  H      -2.565340     -0.962913     -0.527739
  H      -4.169626     -1.006115     -0.291033
  N      -3.971696      2.708722      0.156795
  H      -4.597900      2.951764     -0.603136
  H      -3.804107      1.708450      0.073723
  H      -3.092508      3.156625     -0.078219
8
Coordinates from ORCA-job /home/vivek/mm/lab5/6-311/nh3/dimer/dimer E -112.824291037672
  N      -3.330611     -0.487077     -0.084194
  H      -3.182206     -0.568202      0.915976
  H      -2.560559     -0.975385     -0.527438
  H      -4.167444     -1.020841     -0.292030
  N      -3.972724      2.723961      0.155513
  H      -4.603167      2.968114     -0.600611
  H      -3.807376      1.723518      0.071315
  H      -3.093047      3.170298     -0.080819
8
Coordinates from ORCA-job /home/vivek/mm/lab5/6-311/nh3/dimer/dimer E -112.824304852871
  N      -3.329422     -0.494712     -0.082540
  H      -3.183095     -0.577214      0.917797
  H      -2.557870     -0.978818     -0.527393
  H      -4.166072     -1.027738     -0.292855
  N      -3.972724      2.731583      0.154858
  H      -4.606619      2.975311     -0.598464
  H      -3.809208      1.730803      0.069292
  H      -3.092125      3.175171     -0.082983
8
Coordinates from ORCA-job /home/vivek/mm/lab5/6-311/nh3/dimer/dimer E -112.824316671096
  N      -3.329266     -0.497950     -0.080547
  H      -3.184805     -0.583685      0.919741
  H      -2.555881     -0.977035     -0.527351
  H      -4.164972     -1.031148     -0.293951
  N      -3.971889      2.735292      0.154373
  H      -4.609517      2.978866     -0.595801
  H      -3.810403      1.734192      0.066864
  H      -3.090403      3.175855     -0.085616
8
Coordinates from ORCA-job /home/vivek/mm/lab5/6-311/nh3/dimer/dimer E -112.824338473074
  N      -3.330311     -0.498841     -0.076338
  H      -3.188711     -0.592813      0.923554
  H      -2.553185     -0.967707     -0.527081
  H      -4.163241     -1.033514     -0.296467
  N      -3.969263      2.736986      0.153557
  H      -4.613875      2.981965     -0.590096
  H      -3.811660      1.735358      0.061806
  H      -3.086889      3.172953     -0.091222
8
Coordinates from ORCA-job /home/vivek/mm/lab5/6-311/nh3/dimer/dimer E -112.824378525715
  N      -3.333871     -0.495126     -0.067799
  H      -3.196486     -0.607028      0.930807
  H      -2.549596     -0.943887     -0.526137
  H      -4.160257     -1.033868     -0.301824
  N      -3.963154      2.733985      0.151983
  H      -4.620317      2.984597     -0.578574
  H      -3.812664      1.731658      0.051887
  H      -3.080791      3.164055     -0.102630
8
Coordinates from ORCA-job /home/vivek/mm/lab5/6-311/nh3/dimer/dimer E -112.824437177995
  N      -3.341054     -0.484856     -0.054037
  H      -3.208235     -0.626633      0.941475
  H      -2.546227     -0.901852     -0.523815
  H      -4.155722     -1.031013     -0.310655
  N      -3.952788      2.723275      0.149372
  H      -4.627576      2.986135     -0.560354
  H      -3.812430      1.720422      0.036712
  H      -3.073104      3.148910     -0.120987
8
Coordinates from ORCA-job /home/vivek/mm/lab5/6-311/nh3/dimer/dimer E -112.824488060727
  N      -3.347280     -0.475938     -0.044446
  H      -3.214739     -0.638791      0.947656
  H      -2.545698     -0.871980     -0.521096
  H      -4.153005     -1.027690     -0.316914
  N      -3.945571      2.712189      0.147521
  H      -4.629938      2.986737     -0.548411
  H      -3.810493      1.709579      0.026740
  H      -3.070411      3.140281     -0.133339
8
Coordinates from ORCA-job /home/vivek/mm/lab5/6-311/nh3/dimer/dimer E -112.824523269683
  N      -3.353635     -0.470151     -0.035760
  H      -3.217988     -0.651695      0.952428
  H      -2.546308     -0.848571     -0.517613
  H      -4.150861     -1.026870     -0.322681
  N      -3.939804      2.702803      0.145841
  H      -4.630307      2.989700     -0.538992
  H      -3.807185      1.700964      0.018216
  H      -3.071047      3.138208     -0.143726
8
Coordinates from ORCA-job /home/vivek/mm/lab5/6-311/nh3/dimer/dimer E -112.824529764960
  N      -3.354714     -0.472238     -0.034500
  H      -3.216763     -0.656273      0.952909
  H      -2.546692     -0.848630     -0.517043
  H      -4.150704     -1.029689     -0.323294
  N      -3.939817      2.704206      0.145716
  H      -4.630029      2.991977     -0.539147
  H      -3.805892      1.702698      0.017464
  H      -3.072524      3.142336     -0.144392
8
Coordinates from ORCA-job /home/vivek/mm/lab5/6-311/nh3/dimer/dimer E -112.824538474981
  N      -3.356622     -0.476121     -0.032540
  H      -3.214526     -0.664821      0.953610
  H      -2.547771     -0.848688     -0.517078
  H      -4.150512     -1.035454     -0.323454
  N      -3.940332      2.708182      0.145766
  H      -4.629582      2.994322     -0.540957
  H      -3.803132      1.707229      0.016839
  H      -3.074659      3.149739     -0.144474
8
Coordinates from ORCA-job /home/vivek/mm/lab5/6-311/nh3/dimer/dimer E -112.824546130738
  N      -3.358863     -0.479040     -0.030784
  H      -3.212343     -0.672927      0.953839
  H      -2.549637     -0.847342     -0.518309
  H      -4.150548     -1.041268     -0.322356
  N      -3.941210      2.712329      0.146046
  H      -4.628692      2.994054     -0.544497
  H      -3.799421      1.711947      0.016929
  H      -3.076421      3.156635     -0.143156
8
Coordinates from ORCA-job /home/vivek/mm/lab5/6-311/nh3/dimer/dimer E -112.824552643381
  N      -3.361227     -0.480203     -0.029762
  H      -3.210275     -0.678458      0.953405
  H      -2.552417     -0.844770     -0.520990
  H      -4.151056     -1.046109     -0.319675
  N      -3.942503      2.715421      0.146422
  H      -4.626955      2.990628     -0.549930
  H      -3.794840      1.715642      0.018020
  H      -3.077863      3.162237     -0.139778
8
Coordinates from ORCA-job /home/vivek/mm/lab5/6-311/nh3/dimer/dimer E -112.824557045555
  N      -3.362739     -0.479559     -0.030179
  H      -3.208627     -0.678558      0.952368
  H      -2.555171     -0.843115     -0.524219
  H      -4.152119     -1.048254     -0.316263
  N      -3.943936      2.716135      0.146614
  H      -4.624706      2.985632     -0.555629
  H      -3.790917      1.716831      0.019967
  H      -3.078920      3.165274     -0.134948
8
Coordinates from ORCA-job /home/vivek/mm/lab5/6-311/nh3/dimer/dimer E -112.824561766049
  N      -3.364063     -0.477995     -0.031645
  H      -3.206639     -0.674875      0.950827
  H      -2.558531     -0.842161     -0.528476
  H      -4.153932     -1.049205     -0.311739
  N      -3.945742      2.715214      0.146499
  H      -4.621528      2.978958     -0.562690
  H      -3.786386      1.716474      0.022818
  H      -3.080314      3.167978     -0.127881
8
Coordinates from ORCA-job /home/vivek/mm/lab5/6-311/nh3/dimer/dimer E -112.824565822034
  N      -3.365375     -0.476541     -0.033355
  H      -3.204461     -0.669517      0.949341
  H      -2.561984     -0.841572     -0.532886
  H      -4.156148     -1.049651     -0.307165
  N      -3.947420      2.713175      0.145896
  H      -4.618113      2.972316     -0.569689
  H      -3.781515      1.715120      0.025604
  H      -3.082118      3.171057     -0.120034
8
Coordinates from ORCA-job /home/vivek/mm/lab5/6-311/nh3/dimer/dimer E -112.824569239501
  N      -3.366755     -0.476194     -0.034284
  H      -3.202573     -0.665587      0.948547
  H      -2.564663     -0.840763     -0.536120
  H      -4.158106     -1.050365     -0.304008
  N      -3.948362      2.711159      0.144926
  H      -4.615648      2.967744     -0.574613
  H      -3.777090      1.713811      0.027082
  H      -3.083938      3.174582     -0.113818
8
Coordinates from ORCA-job /home/vivek/mm/lab5/6-311/nh3/dimer/dimer E -112.824570924509
  N      -3.367915     -0.476974     -0.034102
  H      -3.201558     -0.664686      0.948619
  H      -2.565840     -0.839656     -0.537252
  H      -4.159197     -1.051357     -0.303128
  N      -3.948366      2.710147      0.144071
  H      -4.614952      2.966167     -0.576201
  H      -3.774253      1.713313      0.026806
  H      -3.085054      3.177432     -0.111102
8
Coordinates from ORCA-job /home/vivek/mm/lab5/6-311/nh3/dimer/dimer E -112.824571633048
  N      -3.368587     -0.477803     -0.033476
  H      -3.201463     -0.665499      0.949059
  H      -2.565823     -0.838570     -0.536873
  H      -4.159458     -1.051997     -0.303732
  N      -3.947888      2.709998      0.143709
  H      -4.615470      2.966301     -0.575504
  H      -3.773198      1.713370      0.025738
  H      -3.085248      3.178587     -0.111209
