8
Coordinates from ORCA-job /home/vivek/mm/lab5/6-311/nh3/dimer/dimer E -112.824571633048
  N          -3.36858713181988     -0.47780320671160     -0.03347616121027
  H          -3.20146325554536     -0.66549932573832      0.94905882547366
  H          -2.56582271872368     -0.83856976509535     -0.53687271710098
  H          -4.15945768021422     -1.05199688308151     -0.30373222005516
  N          -3.94788845531087      2.70999838688968      0.14370928097725
  H          -4.61546954804975      2.96630077135707     -0.57550372848756
  H          -3.77319817235226      1.71337002824088      0.02573799495004
  H          -3.08524803798396      3.17858699413915     -0.11120927454697
