4
Coordinates from ORCA-job /home/vivek/mm/lab5/6-311/nh3/monomer/monomer E -56.408789562564
  N          -3.35462675315723     -0.35795288903354     -0.09006493746268
  H          -3.19444047529815     -0.44606967983226      0.90714365475148
  H          -2.58935894156944     -0.84787165828424     -0.53974057365725
  H          -4.18773382997518     -0.90079277284996     -0.28781814363155
