4
Coordinates from ORCA-job /home/vivek/mm/lab5/6-311/nh3/monomer/monomer E -56.408643494275
  N      -3.354995     -0.348029     -0.094160
  H      -3.194559     -0.449027      0.910538
  H      -2.586892     -0.851282     -0.540239
  H      -4.189714     -0.904349     -0.286619
4
Coordinates from ORCA-job /home/vivek/mm/lab5/6-311/nh3/monomer/monomer E -56.408767789953
  N      -3.354955     -0.351502     -0.092403
  H      -3.195198     -0.449490      0.904346
  H      -2.591422     -0.849504     -0.537065
  H      -4.184585     -0.902191     -0.285358
4
Coordinates from ORCA-job /home/vivek/mm/lab5/6-311/nh3/monomer/monomer E -56.408782052558
  N      -3.354852     -0.354136     -0.091425
  H      -3.194827     -0.448067      0.905533
  H      -2.590571     -0.848846     -0.538157
  H      -4.185910     -0.901637     -0.286431
4
Coordinates from ORCA-job /home/vivek/mm/lab5/6-311/nh3/monomer/monomer E -56.408789546367
  N      -3.354655     -0.357859     -0.090083
  H      -3.194408     -0.446109      0.907112
  H      -2.589405     -0.847899     -0.539684
  H      -4.187691     -0.900821     -0.287825
4
Coordinates from ORCA-job /home/vivek/mm/lab5/6-311/nh3/monomer/monomer E -56.408789562564
  N      -3.354627     -0.357953     -0.090065
  H      -3.194440     -0.446070      0.907144
  H      -2.589359     -0.847872     -0.539741
  H      -4.187734     -0.900793     -0.287818
