2
Coordinates from ORCA-job monomer E -100.191952692131
  F      -1.446491      2.408914      0.108757
  H      -0.601952      2.312918      0.508277
2
Coordinates from ORCA-job monomer E -100.192292797540
  F      -1.437335      2.407873      0.113088
  H      -0.611108      2.313959      0.503946
2
Coordinates from ORCA-job monomer E -100.192299817575
  F      -1.438528      2.408009      0.112524
  H      -0.609915      2.313823      0.504510
2
Coordinates from ORCA-job monomer E -100.192299767556
  F      -1.438453      2.408000      0.112560
  H      -0.609990      2.313832      0.504474
