3
Coordinates from ORCA-job monomer E -76.217240226405
  O      -1.956517      1.819359     -0.393335
  H      -1.906175      1.150774      0.294514
  H      -1.336672      2.503963     -0.104830
3
Coordinates from ORCA-job monomer E -76.217279328932
  O      -1.955327      1.821791     -0.393806
  H      -1.904971      1.152419      0.294785
  H      -1.339066      2.499886     -0.104630
3
Coordinates from ORCA-job monomer E -76.217279864894
  O      -1.955558      1.821537     -0.393915
  H      -1.904959      1.152446      0.294777
  H      -1.338847      2.500113     -0.104513
3
Coordinates from ORCA-job monomer E -76.217279953095
  O      -1.955623      1.821530     -0.394006
  H      -1.904894      1.152530      0.294796
  H      -1.338846      2.500037     -0.104442
