8
Coordinates from ORCA-job dimer E -112.766556458602
  N      -3.354995     -0.348029     -0.094160
  H      -3.194559     -0.449027      0.910538
  H      -2.586892     -0.851282     -0.540239
  H      -4.189714     -0.904349     -0.286619
  N      -3.962086      2.615914      0.166617
  H      -4.577576      2.825544     -0.617455
  H      -3.784264      1.601785      0.083632
  H      -3.067049      3.043831     -0.064602
8
Coordinates from ORCA-job dimer E -112.767672681138
  N      -3.347464     -0.390512     -0.092239
  H      -3.189716     -0.483427      0.906497
  H      -2.583815     -0.891832     -0.532771
  H      -4.178889     -0.937357     -0.286921
  N      -3.965536      2.646222      0.162890
  H      -4.581101      2.867866     -0.611976
  H      -3.790984      1.641375      0.081064
  H      -3.079629      3.082051     -0.068832
8
Coordinates from ORCA-job dimer E -112.768256726950
  N      -3.337987     -0.443426     -0.089274
  H      -3.183718     -0.525895      0.908084
  H      -2.573428     -0.942778     -0.528401
  H      -4.172137     -0.981459     -0.288459
  N      -3.970041      2.685683      0.158394
  H      -4.590334      2.922920     -0.607088
  H      -3.798850      1.686202      0.077414
  H      -3.090640      3.133140     -0.072958
8
Coordinates from ORCA-job dimer E -112.768427208254
  N      -3.331187     -0.480268     -0.087145
  H      -3.180091     -0.556465      0.911614
  H      -2.565268     -0.976331     -0.526914
  H      -4.168361     -1.012911     -0.289865
  N      -3.973323      2.716131      0.155229
  H      -4.598569      2.959877     -0.603918
  H      -3.804343      1.716785      0.074214
  H      -3.095993      3.167569     -0.075503
8
Coordinates from ORCA-job dimer E -112.768470689262
  N      -3.327485     -0.500233     -0.085541
  H      -3.179126     -0.574193      0.913776
  H      -2.560212     -0.992942     -0.526629
  H      -4.166079     -1.029981     -0.290490
  N      -3.974989      2.734130      0.153565
  H      -4.604454      2.978322     -0.601990
  H      -3.807776      1.734853      0.072062
  H      -3.097012      3.184430     -0.077040
8
Coordinates from ORCA-job dimer E -112.768481506512
  N      -3.326061     -0.508269     -0.084478
  H      -3.179365     -0.582552      0.915071
  H      -2.557894     -0.998225     -0.526633
  H      -4.164882     -1.037060     -0.290866
  N      -3.975429      2.742239      0.152802
  H      -4.607668      2.985311     -0.600684
  H      -3.809352      1.742665      0.070578
  H      -3.096484      3.190279     -0.078080
8
Coordinates from ORCA-job dimer E -112.768486703081
  N      -3.325856     -0.510420     -0.083560
  H      -3.180098     -0.586314      0.915988
  H      -2.556845     -0.998049     -0.526672
  H      -4.164301     -1.039281     -0.291236
  N      -3.975157      2.744853      0.152431
  H      -4.609399      2.987291     -0.599530
  H      -3.809934      1.745126      0.069334
  H      -3.095545      3.191182     -0.079043
8
Coordinates from ORCA-job dimer E -112.768496423064
  N      -3.326348     -0.511202     -0.081434
  H      -3.181998     -0.591796      0.917942
  H      -2.555452     -0.993740     -0.526652
  H      -4.163383     -1.041032     -0.292232
  N      -3.973929      2.746477      0.151771
  H      -4.612058      2.988939     -0.596802
  H      -3.810402      1.746470      0.066504
  H      -3.093565      3.190272     -0.081386
8
Coordinates from ORCA-job dimer E -112.768514395876
  N      -3.328246     -0.509656     -0.076844
  H      -3.185937     -0.600838      0.921928
  H      -2.553514     -0.981762     -0.526407
  H      -4.161785     -1.042172     -0.294569
  N      -3.970835      2.745883      0.150495
  H      -4.616168      2.990691     -0.590962
  H      -3.810495      1.745528      0.060615
  H      -3.090155      3.186712     -0.086544
8
Coordinates from ORCA-job dimer E -112.768544667266
  N      -3.332591     -0.504662     -0.068037
  H      -3.192883     -0.616078      0.929143
  H      -2.551073     -0.957431     -0.525616
  H      -4.158974     -1.042645     -0.299249
  N      -3.964716      2.741294      0.148156
  H      -4.622008      2.993230     -0.580063
  H      -3.809626      1.740670      0.049870
  H      -3.085264      3.180009     -0.096492
8
Coordinates from ORCA-job dimer E -112.768577592444
  N      -3.337997     -0.498644     -0.058184
  H      -3.199504     -0.632051      0.936493
  H      -2.549609     -0.930509     -0.524259
  H      -4.156050     -1.042668     -0.304619
  N      -3.958050      2.734031      0.145693
  H      -4.626388      2.996221     -0.568550
  H      -3.807552      1.733587      0.038618
  H      -3.081985      3.174420     -0.107481
8
Coordinates from ORCA-job dimer E -112.768601852387
  N      -3.343072     -0.495112     -0.049539
  H      -3.203524     -0.646516      0.942230
  H      -2.549195     -0.909403     -0.522496
  H      -4.153778     -1.043876     -0.309518
  N      -3.952812      2.727696      0.143832
  H      -4.628440      3.000354     -0.559529
  H      -3.804712      1.727887      0.029511
  H      -3.081601      3.173356     -0.116778
8
Coordinates from ORCA-job dimer E -112.768608771240
  N      -3.344352     -0.496561     -0.047824
  H      -3.202671     -0.650503      0.943078
  H      -2.549497     -0.907764     -0.521991
  H      -4.153728     -1.045822     -0.310579
  N      -3.952490      2.727661      0.143901
  H      -4.627790      3.002516     -0.559060
  H      -3.803346      1.728280      0.028324
  H      -3.083260      3.176581     -0.118137
8
Coordinates from ORCA-job dimer E -112.768612653875
  N      -3.345084     -0.498524     -0.047304
  H      -3.201248     -0.652913      0.943259
  H      -2.550042     -0.908487     -0.522325
  H      -4.154062     -1.047948     -0.310596
  N      -3.953110      2.729120      0.144442
  H      -4.626764      3.003184     -0.560584
  H      -3.802056      1.730064      0.028670
  H      -3.084770      3.179891     -0.117850
8
Coordinates from ORCA-job dimer E -112.768617273882
  N      -3.346292     -0.500809     -0.046629
  H      -3.199442     -0.656302      0.943358
  H      -2.551144     -0.908358     -0.523626
  H      -4.154650     -1.051059     -0.309856
  N      -3.954213      2.731513      0.145392
  H      -4.625116      3.002471     -0.563733
  H      -3.799759      1.732881      0.029574
  H      -3.086520      3.184049     -0.116768
8
Coordinates from ORCA-job dimer E -112.768621439444
  N      -3.347892     -0.502232     -0.045846
  H      -3.197980     -0.659743      0.943380
  H      -2.552743     -0.906209     -0.525867
  H      -4.155327     -1.054214     -0.308234
  N      -3.955384      2.733687      0.146338
  H      -4.623184      2.999932     -0.567777
  H      -3.796689      1.735511      0.030647
  H      -3.087935      3.187655     -0.114930
8
Coordinates from ORCA-job dimer E -112.768624212412
  N      -3.349239     -0.502243     -0.045472
  H      -3.197241     -0.661302      0.943176
  H      -2.554323     -0.903403     -0.528167
  H      -4.155957     -1.056138     -0.306217
  N      -3.956203      2.734495      0.146732
  H      -4.621603      2.996630     -0.571276
  H      -3.793887      1.736682      0.031542
  H      -3.088684      3.189666     -0.112606
8
Coordinates from ORCA-job dimer E -112.768626607192
  N      -3.350383     -0.501567     -0.045665
  H      -3.196586     -0.660943      0.942642
  H      -2.556016     -0.901166     -0.530476
  H      -4.156744     -1.057320     -0.303823
  N      -3.956912      2.734287      0.146627
  H      -4.620079      2.992973     -0.574708
  H      -3.791072      1.736843      0.032503
  H      -3.089343      3.191278     -0.109388
8
Coordinates from ORCA-job dimer E -112.768629630448
  N      -3.351830     -0.500628     -0.046463
  H      -3.195323     -0.658831      0.941611
  H      -2.558482     -0.899484     -0.533486
  H      -4.158071     -1.058666     -0.300376
  N      -3.957875      2.733330      0.146012
  H      -4.617933      2.988135     -0.579458
  H      -3.787032      1.736490      0.033896
  H      -3.090589      3.194041     -0.104024
8
Coordinates from ORCA-job dimer E -112.768632613825
  N      -3.353535     -0.500117     -0.047617
  H      -3.193330     -0.655656      0.940315
  H      -2.561419     -0.898999     -0.536623
  H      -4.159790     -1.060458     -0.296579
  N      -3.958934      2.731991      0.144915
  H      -4.615467      2.983223     -0.584815
  H      -3.782073      1.736010      0.035356
  H      -3.092588      3.198394     -0.097241
8
Coordinates from ORCA-job dimer E -112.768634512612
  N      -3.354798     -0.500567     -0.048281
  H      -3.191658     -0.653668      0.939576
  H      -2.563301     -0.899648     -0.538193
  H      -4.160969     -1.062146     -0.294568
  N      -3.959458      2.731180      0.143933
  H      -4.614109      2.980896     -0.587856
  H      -3.778500      1.735910      0.035836
  H      -3.094343      3.202430     -0.092734
8
Coordinates from ORCA-job dimer E -112.768635139520
  N      -3.355300     -0.501331     -0.048262
  H      -3.191098     -0.653451      0.939567
  H      -2.563669     -0.900314     -0.538104
  H      -4.161262     -1.063081     -0.294595
  N      -3.959372      2.731101      0.143539
  H      -4.614151      2.980988     -0.588012
  H      -3.777251      1.736134      0.035352
  H      -3.095032      3.204341     -0.091773
8
Coordinates from ORCA-job dimer E -112.768635421283
  N      -3.355440     -0.501790     -0.048062
  H      -3.191244     -0.653692      0.939786
  H      -2.563424     -0.900538     -0.537499
  H      -4.161165     -1.063424     -0.295259
  N      -3.959061      2.731174      0.143498
  H      -4.614700      2.981589     -0.587093
  H      -3.777032      1.736279      0.034632
  H      -3.095069      3.204788     -0.092291
